@<TRIPOS>MOLECULE
E-34
45   45    1
SMALL
USER_CHARGES


@<TRIPOS>ATOM
      1 C1         -0.0913    0.0610   -0.0038 C.3       1 UNK        -0.0746 
      2 C2         -0.4893   -0.6595   -1.3245 C.3       1 UNK        -0.1868 
      3 C3          0.1244   -2.0495   -1.5676 C.2       1 UNK         0.4172 
      4 C4          1.3464   -2.1798   -2.4903 C.3       1 UNK        -0.1881 
      5 C5          2.7262   -2.2414   -1.7868 C.3       1 UNK        -0.1151 
      6 C6         -0.4240   -0.7609    1.2803 C.3       1 UNK        -0.1265 
      7 C7          2.8464   -3.2236   -0.5961 C.3       1 UNK        -0.1308 
      8 C8          4.2087   -3.1884    0.1234 C.3       1 UNK        -0.0919 
      9 C9          4.4142   -1.9695    1.0096 C.2       1 UNK        -0.1590 
     10 C10         0.1198   -0.2004    2.6155 C.3       1 UNK        -0.1190 
     11 C11         1.4997   -0.7893    2.9925 C.3       1 UNK        -0.1861 
     12 C12         4.4976   -2.0037    2.3526 C.2       1 UNK        -0.1787 
     13 C13         2.3100    0.0365    4.0120 C.3       1 UNK         0.4269 
     14 C14         4.6987   -0.7918    3.2483 C.3       1 UNK        -0.0898 
     15 C15         3.6597   -0.6274    4.3854 C.3       1 UNK        -0.1806 
     16 O16        -0.3781   -3.0513   -1.0597 O.2       1 UNK        -0.4514 
     17 C17         1.3468    0.6163   -0.0626 C.3       1 UNK        -0.1724 
     18 F18         2.5369    1.2600    3.5295 F         1 UNK        -0.2284 
     19 F19         1.5887    0.1934    5.1233 F         1 UNK        -0.2284 
     20 H20        -0.7288    0.9457    0.0406 H         1 UNK         0.0901 
     21 H21        -1.5733   -0.7783   -1.3421 H         1 UNK         0.0855 
     22 H22        -0.2513   -0.0204   -2.1751 H         1 UNK         0.0855 
     23 H23         1.2104   -3.0960   -3.0663 H         1 UNK         0.0841 
     24 H24         1.3369   -1.3592   -3.2081 H         1 UNK         0.0841 
     25 H25         3.4622   -2.5344   -2.5364 H         1 UNK         0.0744 
     26 H26         3.0312   -1.2405   -1.4927 H         1 UNK         0.0744 
     27 H27        -1.5101   -0.8348    1.3542 H         1 UNK         0.0709 
     28 H28        -0.0799   -1.7904    1.1850 H         1 UNK         0.0709 
     29 H29         2.0680   -3.0298    0.1428 H         1 UNK         0.0699 
     30 H30         2.6633   -4.2352   -0.9611 H         1 UNK         0.0699 
     31 H31         4.2759   -4.0725    0.7600 H         1 UNK         0.0707 
     32 H32         5.0282   -3.2709   -0.5915 H         1 UNK         0.0707 
     33 H33         4.4945   -1.0209    0.4985 H         1 UNK         0.1215 
     34 H34         0.1516    0.8888    2.5734 H         1 UNK         0.0740 
     35 H35        -0.5819   -0.4349    3.4175 H         1 UNK         0.0740 
     36 H36         1.3592   -1.8039    3.3686 H         1 UNK         0.0831 
     37 H37         2.0933   -0.8938    2.0913 H         1 UNK         0.0831 
     38 H38         4.4211   -2.9539    2.8622 H         1 UNK         0.1299 
     39 H39         5.6742   -0.9499    3.7097 H         1 UNK         0.0744 
     40 H40         4.7861    0.1249    2.6628 H         1 UNK         0.0744 
     41 H41         4.1190   -0.0142    5.1625 H         1 UNK         0.0841 
     42 H42         3.4787   -1.5909    4.8649 H         1 UNK         0.0841 
     43 H43         2.0862   -0.1680    0.0558 H         1 UNK         0.0599 
     44 H44         1.5277    1.3479    0.7249 H         1 UNK         0.0599 
     45 H45         1.5428    1.1192   -1.0103 H         1 UNK         0.0599 
@<TRIPOS>BOND
     1    1    2 1    
     2    1    6 1    
     3    1   17 1    
     4    1   20 1    
     5    2    3 1    
     6    2   21 1    
     7    2   22 1    
     8    3    4 1    
     9    3   16 2    
    10    4    5 1    
    11    4   23 1    
    12    4   24 1    
    13    5    7 1    
    14    5   25 1    
    15    5   26 1    
    16    6   10 1    
    17    6   27 1    
    18    6   28 1    
    19    7    8 1    
    20    7   29 1    
    21    7   30 1    
    22    8    9 1    
    23    8   31 1    
    24    8   32 1    
    25    9   12 2    
    26    9   33 1    
    27   10   11 1    
    28   10   34 1    
    29   10   35 1    
    30   11   13 1    
    31   11   36 1    
    32   11   37 1    
    33   12   14 1    
    34   12   38 1    
    35   13   15 1    
    36   13   18 1    
    37   13   19 1    
    38   14   15 1    
    39   14   39 1    
    40   14   40 1    
    41   15   41 1    
    42   15   42 1    
    43   17   43 1    
    44   17   44 1    
    45   17   45 1    
@<TRIPOS>SUBSTRUCTURE
     1 UNK         1 GROUP             0       ****    0 ROOT    
