@<TRIPOS>MOLECULE
R-muscone
47   47    1
SMALL
USER_CHARGES


@<TRIPOS>ATOM
      1 C1          0.0399   -0.0123    0.0076 C.3       1 UNK        -0.0696 
      2 C2         -0.4904   -0.6416   -1.3128 C.3       1 UNK        -0.1898 
      3 C3         -0.1567   -2.1186   -1.6041 C.2       1 UNK         0.4209 
      4 C4         -0.4466   -2.6536   -3.0161 C.3       1 UNK        -0.1900 
      5 C5         -1.7561   -2.1503   -3.6663 C.3       1 UNK        -0.1188 
      6 C6         -0.4848   -0.6539    1.3210 C.3       1 UNK        -0.1320 
      7 C7         -3.0477   -2.6103   -2.9583 C.3       1 UNK        -0.1312 
      8 C8         -4.2927   -1.8331   -3.4333 C.3       1 UNK        -0.1280 
      9 C9         -5.6132   -2.2228   -2.7326 C.3       1 UNK        -0.1274 
     10 C10        -2.0115   -0.8536    1.4281 C.3       1 UNK        -0.1217 
     11 C11        -2.8492    0.4345    1.2737 C.3       1 UNK        -0.1272 
     12 C12        -5.6000   -2.1864   -1.1884 C.3       1 UNK        -0.1265 
     13 C13        -4.3435    0.2751    1.6392 C.3       1 UNK        -0.1348 
     14 C14        -5.1153   -0.8591   -0.5700 C.3       1 UNK        -0.1260 
     15 C15        -5.0819   -0.9049    0.9702 C.3       1 UNK        -0.1263 
     16 O16         0.3617   -2.8531   -0.7647 O.2       1 UNK        -0.4581 
     17 C17         1.5782    0.0988    0.0230 C.3       1 UNK        -0.1722 
     18 H18        -0.3267    1.0153    0.0044 H         1 UNK         0.0865 
     19 H19        -1.5752   -0.5428   -1.3308 H         1 UNK         0.0841 
     20 H20        -0.1215   -0.0496   -2.1510 H         1 UNK         0.0841 
     21 H21         0.3972   -2.3794   -3.6495 H         1 UNK         0.0861 
     22 H22        -0.4500   -3.7436   -2.9783 H         1 UNK         0.0861 
     23 H23        -1.7341   -1.0610   -3.7237 H         1 UNK         0.0754 
     24 H24        -1.7835   -2.4870   -4.7034 H         1 UNK         0.0754 
     25 H25        -0.0035   -1.6196    1.4776 H         1 UNK         0.0668 
     26 H26        -0.1609   -0.0399    2.1629 H         1 UNK         0.0668 
     27 H27        -3.1922   -3.6795   -3.1191 H         1 UNK         0.0702 
     28 H28        -2.9350   -2.4821   -1.8824 H         1 UNK         0.0702 
     29 H29        -4.1233   -0.7639   -3.2984 H         1 UNK         0.0618 
     30 H30        -4.4137   -1.9739   -4.5083 H         1 UNK         0.0618 
     31 H31        -6.4044   -1.5644   -3.0940 H         1 UNK         0.0624 
     32 H32        -5.8999   -3.2255   -3.0528 H         1 UNK         0.0624 
     33 H33        -2.3280   -1.5898    0.6884 H         1 UNK         0.0646 
     34 H34        -2.2268   -1.3022    2.3989 H         1 UNK         0.0646 
     35 H35        -2.4245    1.2159    1.9055 H         1 UNK         0.0649 
     36 H36        -2.7629    0.8082    0.2533 H         1 UNK         0.0649 
     37 H37        -6.6058   -2.4036   -0.8258 H         1 UNK         0.0653 
     38 H38        -4.9770   -3.0035   -0.8214 H         1 UNK         0.0653 
     39 H39        -4.4248    0.1589    2.7209 H         1 UNK         0.0660 
     40 H40        -4.8658    1.2040    1.4063 H         1 UNK         0.0660 
     41 H41        -4.1166   -0.6386   -0.9432 H         1 UNK         0.0638 
     42 H42        -5.7514   -0.0373   -0.9012 H         1 UNK         0.0638 
     43 H43        -4.6251   -1.8387    1.3006 H         1 UNK         0.0634 
     44 H44        -6.1063   -0.9388    1.3438 H         1 UNK         0.0634 
     45 H45         2.0567   -0.8800    0.0625 H         1 UNK         0.0609 
     46 H46         1.9235    0.6655    0.8884 H         1 UNK         0.0609 
     47 H47         1.9463    0.6112   -0.8664 H         1 UNK         0.0609 
@<TRIPOS>BOND
     1    1    2 1    
     2    1    6 1    
     3    1   17 1    
     4    1   18 1    
     5    2    3 1    
     6    2   19 1    
     7    2   20 1    
     8    3    4 1    
     9    3   16 2    
    10    4    5 1    
    11    4   21 1    
    12    4   22 1    
    13    5    7 1    
    14    5   23 1    
    15    5   24 1    
    16    6   10 1    
    17    6   25 1    
    18    6   26 1    
    19    7    8 1    
    20    7   27 1    
    21    7   28 1    
    22    8    9 1    
    23    8   29 1    
    24    8   30 1    
    25    9   12 1    
    26    9   31 1    
    27    9   32 1    
    28   10   11 1    
    29   10   33 1    
    30   10   34 1    
    31   11   13 1    
    32   11   35 1    
    33   11   36 1    
    34   12   14 1    
    35   12   37 1    
    36   12   38 1    
    37   13   15 1    
    38   13   39 1    
    39   13   40 1    
    40   14   15 1    
    41   14   41 1    
    42   14   42 1    
    43   15   43 1    
    44   15   44 1    
    45   17   45 1    
    46   17   46 1    
    47   17   47 1    
@<TRIPOS>SUBSTRUCTURE
     1 UNK         1 GROUP             0       ****    0 ROOT    
