@<TRIPOS>MOLECULE
Z-32
45   45    1
SMALL
USER_CHARGES


@<TRIPOS>ATOM
      1 C1         -0.5050   -0.7573    1.3000 C.3       1 UNK        -0.1194 
      2 C2          0.0523   -0.0434    0.0437 C.3       1 UNK        -0.0688 
      3 C3         -0.5275   -0.6508   -1.2659 C.3       1 UNK        -0.1883 
      4 C4         -0.7251    0.3360   -2.4266 C.2       1 UNK         0.4246 
      5 C5         -1.8213   -0.0083   -3.4440 C.3       1 UNK        -0.1924 
      6 C6         -1.9887   -0.4317    1.5672 C.3       1 UNK        -0.0984 
      7 C7         -2.9235    1.0701   -3.5878 C.3       1 UNK        -0.1156 
      8 C8         -3.6565    1.4744   -2.2868 C.3       1 UNK        -0.1278 
      9 C9         -4.4143    0.3276   -1.5866 C.3       1 UNK        -0.1289 
     10 C10        -2.6323   -1.2435    2.6774 C.2       1 UNK        -0.1697 
     11 C11        -3.8171   -0.9782    3.2604 C.2       1 UNK        -0.1712 
     12 C12        -4.9715    0.7398   -0.2107 C.3       1 UNK        -0.1300 
     13 C13        -4.7250    0.2096    2.9711 C.3       1 UNK        -0.0976 
     14 C14        -5.5676   -0.4393    0.5877 C.3       1 UNK        -0.1270 
     15 C15        -5.9272   -0.0991    2.0515 C.3       1 UNK        -0.1232 
     16 C16         1.5931   -0.0446    0.0292 C.3       1 UNK        -0.1704 
     17 O17        -0.0852    1.3841   -2.5142 O.2       1 UNK        -0.4594 
     18 H18        -0.3709   -1.8351    1.1922 H         1 UNK         0.0659 
     19 H19         0.0739   -0.4726    2.1802 H         1 UNK         0.0659 
     20 H20        -0.2559    1.0018    0.1220 H         1 UNK         0.0810 
     21 H21         0.1151   -1.4612   -1.6114 H         1 UNK         0.0857 
     22 H22        -1.4915   -1.1173   -1.0731 H         1 UNK         0.0857 
     23 H23        -1.3467   -0.1907   -4.4083 H         1 UNK         0.0848 
     24 H24        -2.2787   -0.9546   -3.1548 H         1 UNK         0.0848 
     25 H25        -2.0919    0.6292    1.7963 H         1 UNK         0.0683 
     26 H26        -2.5768   -0.6320    0.6753 H         1 UNK         0.0683 
     27 H27        -2.4849    1.9654   -4.0315 H         1 UNK         0.0744 
     28 H28        -3.6590    0.7195   -4.3128 H         1 UNK         0.0744 
     29 H29        -2.9365    1.9124   -1.5940 H         1 UNK         0.0668 
     30 H30        -4.3617    2.2749   -2.5147 H         1 UNK         0.0668 
     31 H31        -5.2253   -0.0248   -2.2254 H         1 UNK         0.0644 
     32 H32        -3.7447   -0.5214   -1.4526 H         1 UNK         0.0644 
     33 H33        -2.0929   -2.1250    2.9934 H         1 UNK         0.1221 
     34 H34        -4.1712   -1.6532    4.0262 H         1 UNK         0.1222 
     35 H35        -4.1664    1.2002    0.3607 H         1 UNK         0.0653 
     36 H36        -5.7282    1.5154   -0.3372 H         1 UNK         0.0653 
     37 H37        -5.1038    0.5386    3.9394 H         1 UNK         0.0700 
     38 H38        -4.1617    1.0634    2.5974 H         1 UNK         0.0700 
     39 H39        -6.4652   -0.7882    0.0753 H         1 UNK         0.0648 
     40 H40        -4.8794   -1.2853    0.5769 H         1 UNK         0.0648 
     41 H41        -6.4930   -0.9288    2.4782 H         1 UNK         0.0641 
     42 H42        -6.6096    0.7519    2.0608 H         1 UNK         0.0641 
     43 H43         1.9904   -1.0592   -0.0149 H         1 UNK         0.0632 
     44 H44         1.9968    0.4306    0.9240 H         1 UNK         0.0632 
     45 H45         1.9842    0.5020   -0.8295 H         1 UNK         0.0632 
@<TRIPOS>BOND
     1    1    2 1    
     2    1    6 1    
     3    1   18 1    
     4    1   19 1    
     5    2    3 1    
     6    2   16 1    
     7    2   20 1    
     8    3    4 1    
     9    3   21 1    
    10    3   22 1    
    11    4    5 1    
    12    4   17 2    
    13    5    7 1    
    14    5   23 1    
    15    5   24 1    
    16    6   10 1    
    17    6   25 1    
    18    6   26 1    
    19    7    8 1    
    20    7   27 1    
    21    7   28 1    
    22    8    9 1    
    23    8   29 1    
    24    8   30 1    
    25    9   12 1    
    26    9   31 1    
    27    9   32 1    
    28   10   11 2    
    29   10   33 1    
    30   11   13 1    
    31   11   34 1    
    32   12   14 1    
    33   12   35 1    
    34   12   36 1    
    35   13   15 1    
    36   13   37 1    
    37   13   38 1    
    38   14   15 1    
    39   14   39 1    
    40   14   40 1    
    41   15   41 1    
    42   15   42 1    
    43   16   43 1    
    44   16   44 1    
    45   16   45 1    
@<TRIPOS>SUBSTRUCTURE
     1 UNK         1 GROUP             0       ****    0 ROOT    
