@<TRIPOS>MOLECULE
Z-34
45   45    1
SMALL
USER_CHARGES


@<TRIPOS>ATOM
      1 C1         -0.5344   -0.6700   -1.2887 C.3       1 UNK        -0.1906 
      2 C2         -2.0608   -0.5650   -1.4009 C.2       1 UNK         0.4255 
      3 C3         -2.6554    0.7682   -1.8745 C.3       1 UNK        -0.1932 
      4 C4         -3.7983    1.3109   -0.9861 C.3       1 UNK        -0.1193 
      5 C5         -3.3157    2.0390    0.2856 C.3       1 UNK        -0.1240 
      6 C6          0.0514   -0.0209   -0.0088 C.3       1 UNK        -0.0682 
      7 C7         -4.4678    2.4062    1.2397 C.3       1 UNK        -0.1013 
      8 C8         -4.1075    3.4457    2.2907 C.2       1 UNK        -0.1690 
      9 C9         -3.5924    3.2228    3.5154 C.2       1 UNK        -0.1730 
     10 C10        -0.4350   -0.6940    1.3046 C.3       1 UNK        -0.1225 
     11 C11        -0.2647    0.1878    2.5556 C.3       1 UNK        -0.1255 
     12 C12        -3.1468    1.8869    4.0866 C.3       1 UNK        -0.0924 
     13 C13        -0.9785   -0.3858    3.8002 C.3       1 UNK        -0.1894 
     14 C14        -1.7241    1.9443    4.6869 C.3       1 UNK        -0.1876 
     15 C15        -1.0744    0.5753    5.0117 C.3       1 UNK         0.4312 
     16 F16        -1.7676   -0.0216    5.9823 F         1 UNK        -0.2316 
     17 F17         0.1488    0.7869    5.4997 F         1 UNK        -0.2316 
     18 C18         1.5893    0.0209   -0.0875 C.3       1 UNK        -0.1709 
     19 O19        -2.7808   -1.5157   -1.0977 O.2       1 UNK        -0.4556 
     20 H20        -0.2571   -1.7246   -1.3140 H         1 UNK         0.0822 
     21 H21        -0.0983   -0.2152   -2.1787 H         1 UNK         0.0822 
     22 H22        -1.8650    1.5144   -1.9611 H         1 UNK         0.0851 
     23 H23        -3.0226    0.6148   -2.8894 H         1 UNK         0.0851 
     24 H24        -4.3983    2.0021   -1.5796 H         1 UNK         0.0765 
     25 H25        -4.4823    0.5045   -0.7146 H         1 UNK         0.0765 
     26 H26        -2.5959    1.4225    0.8236 H         1 UNK         0.0694 
     27 H27        -2.7790    2.9411   -0.0126 H         1 UNK         0.0694 
     28 H28        -0.2816    1.0189    0.0009 H         1 UNK         0.0775 
     29 H29        -5.3173    2.8003    0.6801 H         1 UNK         0.0700 
     30 H30        -4.8278    1.5047    1.7371 H         1 UNK         0.0700 
     31 H31        -4.3412    4.4653    2.0197 H         1 UNK         0.1259 
     32 H32        -3.4288    4.0752    4.1594 H         1 UNK         0.1326 
     33 H33        -1.4935   -0.9396    1.2228 H         1 UNK         0.0674 
     34 H34         0.0708   -1.6502    1.4474 H         1 UNK         0.0674 
     35 H35         0.7928    0.3378    2.7753 H         1 UNK         0.0765 
     36 H36        -0.6688    1.1711    2.3201 H         1 UNK         0.0765 
     37 H37        -3.8573    1.6030    4.8635 H         1 UNK         0.0753 
     38 H38        -3.2060    1.1308    3.3062 H         1 UNK         0.0753 
     39 H39        -1.9811   -0.7194    3.5310 H         1 UNK         0.0867 
     40 H40        -0.4589   -1.2936    4.1105 H         1 UNK         0.0867 
     41 H41        -1.0648    2.5047    4.0233 H         1 UNK         0.0891 
     42 H42        -1.7580    2.5419    5.5995 H         1 UNK         0.0891 
     43 H43         2.0154   -0.9831   -0.1002 H         1 UNK         0.0655 
     44 H44         2.0213    0.5533    0.7600 H         1 UNK         0.0655 
     45 H45         1.9247    0.5330   -0.9901 H         1 UNK         0.0655 
@<TRIPOS>BOND
     1    1    2 1    
     2    1    6 1    
     3    1   20 1    
     4    1   21 1    
     5    2    3 1    
     6    2   19 2    
     7    3    4 1    
     8    3   22 1    
     9    3   23 1    
    10    4    5 1    
    11    4   24 1    
    12    4   25 1    
    13    5    7 1    
    14    5   26 1    
    15    5   27 1    
    16    6   10 1    
    17    6   18 1    
    18    6   28 1    
    19    7    8 1    
    20    7   29 1    
    21    7   30 1    
    22    8    9 2    
    23    8   31 1    
    24    9   12 1    
    25    9   32 1    
    26   10   11 1    
    27   10   33 1    
    28   10   34 1    
    29   11   13 1    
    30   11   35 1    
    31   11   36 1    
    32   12   14 1    
    33   12   37 1    
    34   12   38 1    
    35   13   15 1    
    36   13   39 1    
    37   13   40 1    
    38   14   15 1    
    39   14   41 1    
    40   14   42 1    
    41   15   16 1    
    42   15   17 1    
    43   18   43 1    
    44   18   44 1    
    45   18   45 1    
@<TRIPOS>SUBSTRUCTURE
     1 UNK         1 GROUP             0       ****    0 ROOT    
